Version 4.1
SHEET 1 936 680
WIRE -240 16 -320 16
WIRE -64 16 -160 16
WIRE 16 16 -64 16
WIRE 848 16 96 16
WIRE -64 144 -64 16
WIRE 16 144 -64 144
WIRE 144 144 96 144
WIRE 192 144 144 144
WIRE 336 144 272 144
WIRE 384 144 336 144
WIRE 496 144 448 144
WIRE 544 144 496 144
WIRE 688 144 624 144
WIRE 720 144 688 144
WIRE 848 144 848 16
WIRE 848 144 784 144
WIRE -64 272 -64 144
WIRE 16 272 -64 272
WIRE 336 272 336 144
WIRE 384 272 336 272
WIRE 688 272 688 144
WIRE 720 272 688 272
WIRE 144 288 144 144
WIRE 144 288 80 288
WIRE 496 288 496 144
WIRE 496 288 448 288
WIRE 848 288 848 144
WIRE 848 288 784 288
WIRE 16 304 -64 304
WIRE 384 304 336 304
WIRE 720 304 688 304
WIRE 336 336 336 304
WIRE 688 336 688 304
WIRE -64 400 -64 304
WIRE 192 400 -64 400
WIRE 496 400 496 288
WIRE 496 400 272 400
WIRE -64 416 -64 400
WIRE -64 528 -64 496
FLAG 336 336 0
FLAG 688 336 0
FLAG -64 528 0
FLAG -320 16 Vi
IOPIN -320 16 In
FLAG 848 144 Vo
IOPIN 848 144 Out
FLAG 48 256 +Vcc
IOPIN 48 256 In
FLAG 416 256 +Vcc
IOPIN 416 256 In
FLAG 752 256 +Vcc
IOPIN 752 256 In
FLAG 48 320 -Vcc
IOPIN 48 320 In
FLAG 416 320 -Vcc
IOPIN 416 320 In
FLAG 752 320 -Vcc
IOPIN 752 320 In
SYMBOL res -144 0 R90
WINDOW 0 0 56 VBottom 2
WINDOW 3 32 56 VTop 2
SYMATTR InstName R1
SYMATTR Value 1
SYMBOL res 112 0 R90
WINDOW 0 0 56 VBottom 2
WINDOW 3 32 56 VTop 2
SYMATTR InstName R2
SYMATTR Value 1
SYMBOL res 112 128 R90
WINDOW 0 0 56 VBottom 2
WINDOW 3 32 56 VTop 2
SYMATTR InstName R3
SYMATTR Value {2/(3*Q2)}
SYMBOL res 288 128 R90
WINDOW 0 0 56 VBottom 2
WINDOW 3 32 56 VTop 2
SYMATTR InstName R4
SYMATTR Value 1
SYMBOL cap 448 128 R90
WINDOW 0 0 32 VBottom 2
WINDOW 3 32 32 VTop 2
SYMATTR InstName C1
SYMBOL res 640 128 R90
WINDOW 0 0 56 VBottom 2
WINDOW 3 32 56 VTop 2
SYMATTR InstName R5
SYMATTR Value 1
SYMBOL cap 784 128 R90
WINDOW 0 0 32 VBottom 2
WINDOW 3 32 32 VTop 2
SYMATTR InstName C2
SYMATTR Value 1
SYMBOL OpAmps\\UniversalOpAmp 48 288 R0
SYMATTR InstName U1
SYMBOL OpAmps\\UniversalOpAmp 416 288 R0
SYMATTR InstName U2
SYMBOL OpAmps\\UniversalOpAmp 752 288 R0
SYMATTR InstName U3
SYMBOL res -80 400 R0
SYMATTR InstName R6
SYMATTR Value 1
SYMBOL res 288 384 R90
WINDOW 0 0 56 VBottom 2
WINDOW 3 32 56 VTop 2
SYMATTR InstName R7
SYMATTR Value 1
TEXT 416 -80 Left 2 !.param Q2 0.707
