Version 4.1
SHEET 1 880 680
WIRE 176 -48 0 -48
WIRE 336 -48 176 -48
WIRE 0 0 0 -48
WIRE 176 0 176 -48
WIRE -128 144 -192 144
WIRE 0 144 0 80
WIRE 0 144 -48 144
WIRE 48 144 0 144
WIRE 176 144 176 64
WIRE 176 144 128 144
WIRE 208 144 176 144
WIRE 336 160 336 -48
WIRE 336 160 272 160
WIRE 400 160 336 160
WIRE 208 176 160 176
WIRE 0 208 0 144
WIRE 160 256 160 176
WIRE 0 304 0 272
FLAG 160 256 0
FLAG 0 304 0
FLAG 400 160 Vo
IOPIN 400 160 Out
FLAG -192 144 Vi
IOPIN -192 144 In
FLAG 240 128 +Vcc
FLAG 240 192 -Vcc
SYMBOL OpAmps\\UniversalOpAmp 240 160 R0
SYMATTR InstName U1
SYMBOL res -32 128 R90
WINDOW 0 0 56 VBottom 2
WINDOW 3 32 56 VTop 2
SYMATTR InstName R3
SYMATTR Value 1
SYMBOL res 144 128 R90
WINDOW 0 0 56 VBottom 2
WINDOW 3 32 56 VTop 2
SYMATTR InstName R2
SYMATTR Value 1
SYMBOL res -16 -16 R0
SYMATTR InstName R1
SYMATTR Value 1
SYMBOL cap -16 208 R0
SYMATTR InstName C1
SYMATTR Value 1
SYMBOL cap 160 0 R0
SYMATTR InstName C2
SYMATTR Value {3*Q3}
TEXT 528 -16 Left 2 !.param Q3 1.932
