Version 4.1
SHEET 1 1236 680
WIRE -32 0 -208 0
WIRE 176 0 32 0
WIRE -320 112 -384 112
WIRE -208 112 -208 0
WIRE -208 112 -240 112
WIRE -176 112 -208 112
WIRE -64 112 -96 112
WIRE 64 112 -64 112
WIRE 176 128 176 0
WIRE 176 128 128 128
WIRE 64 144 0 144
WIRE -64 160 -64 112
WIRE -64 256 -64 224
WIRE 0 288 0 144
WIRE 64 288 0 288
WIRE 176 288 176 128
WIRE 176 288 144 288
FLAG 176 128 Vo
IOPIN 176 128 Out
FLAG -384 112 Vi
IOPIN -384 112 In
FLAG 96 96 -Vcc
IOPIN 96 96 In
FLAG 96 160 +Vcc
IOPIN 96 160 In
FLAG -64 256 0
SYMBOL OpAmps\\UniversalOpAmp 96 128 M180
SYMATTR InstName U1
SYMBOL res -224 96 R90
WINDOW 0 0 56 VBottom 2
WINDOW 3 32 56 VTop 2
SYMATTR InstName R1
SYMATTR Value 1
SYMBOL res -80 96 R90
WINDOW 0 0 56 VBottom 2
WINDOW 3 32 56 VTop 2
SYMATTR InstName R2
SYMATTR Value 1
SYMBOL cap -80 160 R0
SYMATTR InstName C1
SYMATTR Value 1
SYMBOL res 160 272 R90
WINDOW 0 0 56 VBottom 2
WINDOW 3 32 56 VTop 2
SYMATTR InstName R4
SYMATTR Value 1
SYMBOL cap 32 -16 R90
WINDOW 0 0 32 VBottom 2
WINDOW 3 32 32 VTop 2
SYMATTR InstName C2
SYMATTR Value {2*Q1}
TEXT -216 -104 Left 2 !.param Q1 0.5176
